data_image0
_chemical_formula_structural       NHC2NOCH2C2OCHNHC2NOCH2C2OCHNHC2NOCH2C2OCHNHC2NOCH2C2OCH
_chemical_formula_sum              "N8 H16 C24 O8"
_cell_length_a       9.0169
_cell_length_b       6.8086
_cell_length_c       9.3777
_cell_angle_alpha    90
_cell_angle_beta     101.209
_cell_angle_gamma    90

_space_group_name_H-M_alt    "P 1"
_space_group_IT_number       1

loop_
  _space_group_symop_operation_xyz
  'x, y, z'

loop_
  _atom_site_type_symbol
  _atom_site_label
  _atom_site_symmetry_multiplicity
  _atom_site_fract_x
  _atom_site_fract_y
  _atom_site_fract_z
  _atom_site_occupancy
  N   N1        1.0  0.70260  0.91820  0.55350  1.0000
  H   H1        1.0  0.65390  0.02970  0.53240  1.0000
  C   C1        1.0  0.62250  0.74770  0.53830  1.0000
  C   C2        1.0  0.85580  0.92290  0.60040  1.0000
  N   N2        1.0  0.70520  0.58080  0.57290  1.0000
  O   O1        1.0  0.48390  0.74440  0.49630  1.0000
  C   C3        1.0  0.93880  0.75880  0.63340  1.0000
  H   H2        1.0  0.90570  0.04650  0.61000  1.0000
  H   H3        1.0  0.65500  0.46930  0.56360  1.0000
  C   C4        1.0  0.86160  0.56850  0.62150  1.0000
  C   C5        1.0  0.09880  0.76750  0.68260  1.0000
  O   O2        1.0  0.92066  0.40877  0.64942  1.0000
  C   C6        1.0  0.23170  0.78180  0.72290  1.0000
  H   H4        1.0  0.33790  0.79330  0.75520  1.0000
  N   N3        1.0  0.29740  0.41820  0.94650  1.0000
  H   H5        1.0  0.34610  0.52970  0.96760  1.0000
  C   C7        1.0  0.37750  0.24770  0.96170  1.0000
  C   C8        1.0  0.14420  0.42290  0.89960  1.0000
  N   N4        1.0  0.29480  0.08080  0.92710  1.0000
  O   O3        1.0  0.51610  0.24440  0.00370  1.0000
  C   C9        1.0  0.06120  0.25880  0.86660  1.0000
  H   H6        1.0  0.09430  0.54650  0.89000  1.0000
  H   H7        1.0  0.34500  0.96930  0.93640  1.0000
  C   C10       1.0  0.13840  0.06850  0.87850  1.0000
  C   C11       1.0  0.90120  0.26750  0.81740  1.0000
  O   O4        1.0  0.07934  0.90877  0.85058  1.0000
  C   C12       1.0  0.76830  0.28180  0.77710  1.0000
  H   H8        1.0  0.66210  0.29330  0.74480  1.0000
  N   N5        1.0  0.29740  0.08180  0.44650  1.0000
  H   H9        1.0  0.34610  0.97030  0.46760  1.0000
  C   C13       1.0  0.37750  0.25230  0.46170  1.0000
  C   C14       1.0  0.14420  0.07710  0.39960  1.0000
  N   N6        1.0  0.29480  0.41920  0.42710  1.0000
  O   O5        1.0  0.51610  0.25560  0.50370  1.0000
  C   C15       1.0  0.06120  0.24120  0.36660  1.0000
  H   H10       1.0  0.09430  0.95350  0.39000  1.0000
  H   H11       1.0  0.34500  0.53070  0.43640  1.0000
  C   C16       1.0  0.13840  0.43150  0.37850  1.0000
  C   C17       1.0  0.90120  0.23250  0.31740  1.0000
  O   O6        1.0  0.07934  0.59123  0.35058  1.0000
  C   C18       1.0  0.76830  0.21820  0.27710  1.0000
  H   H12       1.0  0.66210  0.20670  0.24480  1.0000
  N   N7        1.0  0.70260  0.58180  0.05350  1.0000
  H   H13       1.0  0.65390  0.47030  0.03240  1.0000
  C   C19       1.0  0.62250  0.75230  0.03830  1.0000
  C   C20       1.0  0.85580  0.57710  0.10040  1.0000
  N   N8        1.0  0.70520  0.91920  0.07290  1.0000
  O   O7        1.0  0.48390  0.75560  0.99630  1.0000
  C   C21       1.0  0.93880  0.74120  0.13340  1.0000
  H   H14       1.0  0.90570  0.45350  0.11000  1.0000
  H   H15       1.0  0.65500  0.03070  0.06360  1.0000
  C   C22       1.0  0.86160  0.93150  0.12150  1.0000
  C   C23       1.0  0.09880  0.73250  0.18260  1.0000
  O   O8        1.0  0.92066  0.09123  0.14942  1.0000
  C   C24       1.0  0.23170  0.71820  0.22290  1.0000
  H   H16       1.0  0.33790  0.70670  0.25520  1.0000
data_image1
_chemical_formula_structural       NHC2NOCH2C2OCHNHC2NOCH2C2OCHNHC2NOCH2C2OCHNHC2NOCH2C2OCH
_chemical_formula_sum              "N8 H16 C24 O8"
_cell_length_a       9.0169
_cell_length_b       6.8086
_cell_length_c       9.3777
_cell_angle_alpha    90
_cell_angle_beta     101.209
_cell_angle_gamma    90

_space_group_name_H-M_alt    "P 1"
_space_group_IT_number       1

loop_
  _space_group_symop_operation_xyz
  'x, y, z'

loop_
  _atom_site_type_symbol
  _atom_site_label
  _atom_site_symmetry_multiplicity
  _atom_site_fract_x
  _atom_site_fract_y
  _atom_site_fract_z
  _atom_site_occupancy
  N   N1        1.0  0.70260  0.91820  0.55350  1.0000
  H   H1        1.0  0.65390  0.02970  0.53240  1.0000
  C   C1        1.0  0.62250  0.74770  0.53830  1.0000
  C   C2        1.0  0.85580  0.92290  0.60040  1.0000
  N   N2        1.0  0.70520  0.58080  0.57290  1.0000
  O   O1        1.0  0.48390  0.74440  0.49630  1.0000
  C   C3        1.0  0.93880  0.75880  0.63340  1.0000
  H   H2        1.0  0.90570  0.04650  0.61000  1.0000
  H   H3        1.0  0.65500  0.46930  0.56360  1.0000
  C   C4        1.0  0.86160  0.56850  0.62150  1.0000
  C   C5        1.0  0.09880  0.76750  0.68260  1.0000
  O   O2        1.0  0.92066  0.40877  0.64942  1.0000
  C   C6        1.0  0.23170  0.78180  0.72290  1.0000
  H   H4        1.0  0.33790  0.79330  0.75520  1.0000
  N   N3        1.0  0.29740  0.41820  0.94650  1.0000
  H   H5        1.0  0.34610  0.52970  0.96760  1.0000
  C   C7        1.0  0.37750  0.24770  0.96170  1.0000
  C   C8        1.0  0.14420  0.42290  0.89960  1.0000
  N   N4        1.0  0.29480  0.08080  0.92710  1.0000
  O   O3        1.0  0.51610  0.24440  0.00370  1.0000
  C   C9        1.0  0.06120  0.25880  0.86660  1.0000
  H   H6        1.0  0.09430  0.54650  0.89000  1.0000
  H   H7        1.0  0.34500  0.96930  0.93640  1.0000
  C   C10       1.0  0.13840  0.06850  0.87850  1.0000
  C   C11       1.0  0.90120  0.26750  0.81740  1.0000
  O   O4        1.0  0.07934  0.90877  0.85058  1.0000
  C   C12       1.0  0.76830  0.28180  0.77710  1.0000
  H   H8        1.0  0.66210  0.29330  0.74480  1.0000
  N   N5        1.0  0.29800  0.41000  0.44880  1.0000
  H   H9        1.0  0.34630  0.52090  0.47300  1.0000
  C   C13       1.0  0.37870  0.24000  0.46140  1.0000
  C   C14       1.0  0.14510  0.41540  0.40030  1.0000
  N   N6        1.0  0.29650  0.07300  0.42580  1.0000
  O   O5        1.0  0.51730  0.23900  0.50300  1.0000
  C   C15       1.0  0.06220  0.25140  0.36800  1.0000
  H   H10       1.0  0.09570  0.53920  0.38900  1.0000
  H   H11       1.0  0.34700  0.96180  0.43360  1.0000
  C   C16       1.0  0.13980  0.06130  0.37820  1.0000
  C   C17       1.0  0.90180  0.26000  0.32300  1.0000
  O   O6        1.0  0.08130  0.90150  0.35050  1.0000
  C   C18       1.0  0.76910  0.27710  0.28420  1.0000
  H   H12       1.0  0.66280  0.29040  0.25330  1.0000
  N   N7        1.0  0.70260  0.58180  0.05350  1.0000
  H   H13       1.0  0.65390  0.47030  0.03240  1.0000
  C   C19       1.0  0.62250  0.75230  0.03830  1.0000
  C   C20       1.0  0.85580  0.57710  0.10040  1.0000
  N   N8        1.0  0.70520  0.91920  0.07290  1.0000
  O   O7        1.0  0.48390  0.75560  0.99630  1.0000
  C   C21       1.0  0.93880  0.74120  0.13340  1.0000
  H   H14       1.0  0.90570  0.45350  0.11000  1.0000
  H   H15       1.0  0.65500  0.03070  0.06360  1.0000
  C   C22       1.0  0.86160  0.93150  0.12150  1.0000
  C   C23       1.0  0.09880  0.73250  0.18260  1.0000
  O   O8        1.0  0.92066  0.09123  0.14942  1.0000
  C   C24       1.0  0.23170  0.71820  0.22290  1.0000
  H   H16       1.0  0.33790  0.70670  0.25520  1.0000
data_image2
_chemical_formula_structural       NHC2NOCH2C2OCHNHC2NOCH2C2OCHNHC2NOCH2C2OCHNHC2NOCH2C2OCH
_chemical_formula_sum              "N8 H16 C24 O8"
_cell_length_a       9.0169
_cell_length_b       6.8086
_cell_length_c       9.3777
_cell_angle_alpha    90
_cell_angle_beta     101.209
_cell_angle_gamma    90

_space_group_name_H-M_alt    "P 1"
_space_group_IT_number       1

loop_
  _space_group_symop_operation_xyz
  'x, y, z'

loop_
  _atom_site_type_symbol
  _atom_site_label
  _atom_site_symmetry_multiplicity
  _atom_site_fract_x
  _atom_site_fract_y
  _atom_site_fract_z
  _atom_site_occupancy
  N   N1        1.0  0.70200  0.59000  0.55120  1.0000
  H   H1        1.0  0.65370  0.47910  0.52700  1.0000
  C   C1        1.0  0.62130  0.76000  0.53860  1.0000
  C   C2        1.0  0.85490  0.58460  0.59970  1.0000
  N   N2        1.0  0.70350  0.92700  0.57420  1.0000
  O   O1        1.0  0.48270  0.76100  0.49700  1.0000
  C   C3        1.0  0.93780  0.74860  0.63200  1.0000
  H   H2        1.0  0.90430  0.46080  0.61100  1.0000
  H   H3        1.0  0.65300  0.03820  0.56640  1.0000
  C   C4        1.0  0.86020  0.93870  0.62180  1.0000
  C   C5        1.0  0.09820  0.74000  0.67700  1.0000
  O   O2        1.0  0.91870  0.09850  0.64950  1.0000
  C   C6        1.0  0.23090  0.72290  0.71580  1.0000
  H   H4        1.0  0.33720  0.70960  0.74670  1.0000
  N   N3        1.0  0.29740  0.41820  0.94650  1.0000
  H   H5        1.0  0.34610  0.52970  0.96760  1.0000
  C   C7        1.0  0.37750  0.24770  0.96170  1.0000
  C   C8        1.0  0.14420  0.42290  0.89960  1.0000
  N   N4        1.0  0.29480  0.08080  0.92710  1.0000
  O   O3        1.0  0.51610  0.24440  0.00370  1.0000
  C   C9        1.0  0.06120  0.25880  0.86660  1.0000
  H   H6        1.0  0.09430  0.54650  0.89000  1.0000
  H   H7        1.0  0.34500  0.96930  0.93640  1.0000
  C   C10       1.0  0.13840  0.06850  0.87850  1.0000
  C   C11       1.0  0.90120  0.26750  0.81740  1.0000
  O   O4        1.0  0.07934  0.90877  0.85058  1.0000
  C   C12       1.0  0.76830  0.28180  0.77710  1.0000
  H   H8        1.0  0.66210  0.29330  0.74480  1.0000
  N   N5        1.0  0.29740  0.08180  0.44650  1.0000
  H   H9        1.0  0.34610  0.97030  0.46760  1.0000
  C   C13       1.0  0.37750  0.25230  0.46170  1.0000
  C   C14       1.0  0.14420  0.07710  0.39960  1.0000
  N   N6        1.0  0.29480  0.41920  0.42710  1.0000
  O   O5        1.0  0.51610  0.25560  0.50370  1.0000
  C   C15       1.0  0.06120  0.24120  0.36660  1.0000
  H   H10       1.0  0.09430  0.95350  0.39000  1.0000
  H   H11       1.0  0.34500  0.53070  0.43640  1.0000
  C   C16       1.0  0.13840  0.43150  0.37850  1.0000
  C   C17       1.0  0.90120  0.23250  0.31740  1.0000
  O   O6        1.0  0.07934  0.59123  0.35058  1.0000
  C   C18       1.0  0.76830  0.21820  0.27710  1.0000
  H   H12       1.0  0.66210  0.20670  0.24480  1.0000
  N   N7        1.0  0.70200  0.91000  0.05120  1.0000
  H   H13       1.0  0.65370  0.02090  0.02700  1.0000
  C   C19       1.0  0.62130  0.74000  0.03860  1.0000
  C   C20       1.0  0.85490  0.91540  0.09970  1.0000
  N   N8        1.0  0.70350  0.57300  0.07420  1.0000
  O   O7        1.0  0.48270  0.73900  0.99700  1.0000
  C   C21       1.0  0.93780  0.75140  0.13200  1.0000
  H   H14       1.0  0.90430  0.03920  0.11100  1.0000
  H   H15       1.0  0.65300  0.46180  0.06640  1.0000
  C   C22       1.0  0.86020  0.56130  0.12180  1.0000
  C   C23       1.0  0.09820  0.76000  0.17700  1.0000
  O   O8        1.0  0.91870  0.40150  0.14950  1.0000
  C   C24       1.0  0.23090  0.77710  0.21580  1.0000
  H   H16       1.0  0.33720  0.79040  0.24670  1.0000
data_image3
_chemical_formula_structural       NHC2NOCH2C2OCHNHC2NOCH2C2OCHNHC2NOCH2C2OCHNHC2NOCH2C2OCH
_chemical_formula_sum              "N8 H16 C24 O8"
_cell_length_a       9.0169
_cell_length_b       6.8086
_cell_length_c       9.3777
_cell_angle_alpha    90
_cell_angle_beta     101.209
_cell_angle_gamma    90

_space_group_name_H-M_alt    "P 1"
_space_group_IT_number       1

loop_
  _space_group_symop_operation_xyz
  'x, y, z'

loop_
  _atom_site_type_symbol
  _atom_site_label
  _atom_site_symmetry_multiplicity
  _atom_site_fract_x
  _atom_site_fract_y
  _atom_site_fract_z
  _atom_site_occupancy
  N   N1        1.0  0.70200  0.59000  0.55120  1.0000
  H   H1        1.0  0.65370  0.47910  0.52700  1.0000
  C   C1        1.0  0.62130  0.76000  0.53860  1.0000
  C   C2        1.0  0.85490  0.58460  0.59970  1.0000
  N   N2        1.0  0.70350  0.92700  0.57420  1.0000
  O   O1        1.0  0.48270  0.76100  0.49700  1.0000
  C   C3        1.0  0.93780  0.74860  0.63200  1.0000
  H   H2        1.0  0.90430  0.46080  0.61100  1.0000
  H   H3        1.0  0.65300  0.03820  0.56640  1.0000
  C   C4        1.0  0.86020  0.93870  0.62180  1.0000
  C   C5        1.0  0.09820  0.74000  0.67700  1.0000
  O   O2        1.0  0.91870  0.09850  0.64950  1.0000
  C   C6        1.0  0.23090  0.72290  0.71580  1.0000
  H   H4        1.0  0.33720  0.70960  0.74670  1.0000
  N   N3        1.0  0.29800  0.09000  0.94880  1.0000
  H   H5        1.0  0.34630  0.97910  0.97300  1.0000
  C   C7        1.0  0.37870  0.26000  0.96140  1.0000
  C   C8        1.0  0.14510  0.08460  0.90030  1.0000
  N   N4        1.0  0.29650  0.42700  0.92580  1.0000
  O   O3        1.0  0.51730  0.26100  0.00300  1.0000
  C   C9        1.0  0.06220  0.24860  0.86800  1.0000
  H   H6        1.0  0.09570  0.96080  0.88900  1.0000
  H   H7        1.0  0.34700  0.53820  0.93360  1.0000
  C   C10       1.0  0.13980  0.43870  0.87820  1.0000
  C   C11       1.0  0.90180  0.24000  0.82300  1.0000
  O   O4        1.0  0.08130  0.59850  0.85050  1.0000
  C   C12       1.0  0.76910  0.22290  0.78420  1.0000
  H   H8        1.0  0.66280  0.20960  0.75330  1.0000
  N   N5        1.0  0.29740  0.08180  0.44650  1.0000
  H   H9        1.0  0.34610  0.97030  0.46760  1.0000
  C   C13       1.0  0.37750  0.25230  0.46170  1.0000
  C   C14       1.0  0.14420  0.07710  0.39960  1.0000
  N   N6        1.0  0.29480  0.41920  0.42710  1.0000
  O   O5        1.0  0.51610  0.25560  0.50370  1.0000
  C   C15       1.0  0.06120  0.24120  0.36660  1.0000
  H   H10       1.0  0.09430  0.95350  0.39000  1.0000
  H   H11       1.0  0.34500  0.53070  0.43640  1.0000
  C   C16       1.0  0.13840  0.43150  0.37850  1.0000
  C   C17       1.0  0.90120  0.23250  0.31740  1.0000
  O   O6        1.0  0.07934  0.59123  0.35058  1.0000
  C   C18       1.0  0.76830  0.21820  0.27710  1.0000
  H   H12       1.0  0.66210  0.20670  0.24480  1.0000
  N   N7        1.0  0.70260  0.58180  0.05350  1.0000
  H   H13       1.0  0.65390  0.47030  0.03240  1.0000
  C   C19       1.0  0.62250  0.75230  0.03830  1.0000
  C   C20       1.0  0.85580  0.57710  0.10040  1.0000
  N   N8        1.0  0.70520  0.91920  0.07290  1.0000
  O   O7        1.0  0.48390  0.75560  0.99630  1.0000
  C   C21       1.0  0.93880  0.74120  0.13340  1.0000
  H   H14       1.0  0.90570  0.45350  0.11000  1.0000
  H   H15       1.0  0.65500  0.03070  0.06360  1.0000
  C   C22       1.0  0.86160  0.93150  0.12150  1.0000
  C   C23       1.0  0.09880  0.73250  0.18260  1.0000
  O   O8        1.0  0.92066  0.09123  0.14942  1.0000
  C   C24       1.0  0.23170  0.71820  0.22290  1.0000
  H   H16       1.0  0.33790  0.70670  0.25520  1.0000
data_image4
_chemical_formula_structural       NHC2NOCH2C2OCHNHC2NOCH2C2OCHNHC2NOCH2C2OCHNHC2NOCH2C2OCH
_chemical_formula_sum              "N8 H16 C24 O8"
_cell_length_a       9.0169
_cell_length_b       6.8086
_cell_length_c       9.3777
_cell_angle_alpha    90
_cell_angle_beta     101.209
_cell_angle_gamma    90

_space_group_name_H-M_alt    "P 1"
_space_group_IT_number       1

loop_
  _space_group_symop_operation_xyz
  'x, y, z'

loop_
  _atom_site_type_symbol
  _atom_site_label
  _atom_site_symmetry_multiplicity
  _atom_site_fract_x
  _atom_site_fract_y
  _atom_site_fract_z
  _atom_site_occupancy
  N   N1        1.0  0.70260  0.91820  0.55350  1.0000
  H   H1        1.0  0.65390  0.02970  0.53240  1.0000
  C   C1        1.0  0.62250  0.74770  0.53830  1.0000
  C   C2        1.0  0.85580  0.92290  0.60040  1.0000
  N   N2        1.0  0.70520  0.58080  0.57290  1.0000
  O   O1        1.0  0.48390  0.74440  0.49630  1.0000
  C   C3        1.0  0.93880  0.75880  0.63340  1.0000
  H   H2        1.0  0.90570  0.04650  0.61000  1.0000
  H   H3        1.0  0.65500  0.46930  0.56360  1.0000
  C   C4        1.0  0.86160  0.56850  0.62150  1.0000
  C   C5        1.0  0.09880  0.76750  0.68260  1.0000
  O   O2        1.0  0.92066  0.40877  0.64942  1.0000
  C   C6        1.0  0.23170  0.78180  0.72290  1.0000
  H   H4        1.0  0.33790  0.79330  0.75520  1.0000
  N   N3        1.0  0.29800  0.09000  0.94880  1.0000
  H   H5        1.0  0.34630  0.97910  0.97300  1.0000
  C   C7        1.0  0.37870  0.26000  0.96140  1.0000
  C   C8        1.0  0.14510  0.08460  0.90030  1.0000
  N   N4        1.0  0.29650  0.42700  0.92580  1.0000
  O   O3        1.0  0.51730  0.26100  0.00300  1.0000
  C   C9        1.0  0.06220  0.24860  0.86800  1.0000
  H   H6        1.0  0.09570  0.96080  0.88900  1.0000
  H   H7        1.0  0.34700  0.53820  0.93360  1.0000
  C   C10       1.0  0.13980  0.43870  0.87820  1.0000
  C   C11       1.0  0.90180  0.24000  0.82300  1.0000
  O   O4        1.0  0.08130  0.59850  0.85050  1.0000
  C   C12       1.0  0.76910  0.22290  0.78420  1.0000
  H   H8        1.0  0.66280  0.20960  0.75330  1.0000
  N   N5        1.0  0.29800  0.41000  0.44880  1.0000
  H   H9        1.0  0.34630  0.52090  0.47300  1.0000
  C   C13       1.0  0.37870  0.24000  0.46140  1.0000
  C   C14       1.0  0.14510  0.41540  0.40030  1.0000
  N   N6        1.0  0.29650  0.07300  0.42580  1.0000
  O   O5        1.0  0.51730  0.23900  0.50300  1.0000
  C   C15       1.0  0.06220  0.25140  0.36800  1.0000
  H   H10       1.0  0.09570  0.53920  0.38900  1.0000
  H   H11       1.0  0.34700  0.96180  0.43360  1.0000
  C   C16       1.0  0.13980  0.06130  0.37820  1.0000
  C   C17       1.0  0.90180  0.26000  0.32300  1.0000
  O   O6        1.0  0.08130  0.90150  0.35050  1.0000
  C   C18       1.0  0.76910  0.27710  0.28420  1.0000
  H   H12       1.0  0.66280  0.29040  0.25330  1.0000
  N   N7        1.0  0.70200  0.91000  0.05120  1.0000
  H   H13       1.0  0.65370  0.02090  0.02700  1.0000
  C   C19       1.0  0.62130  0.74000  0.03860  1.0000
  C   C20       1.0  0.85490  0.91540  0.09970  1.0000
  N   N8        1.0  0.70350  0.57300  0.07420  1.0000
  O   O7        1.0  0.48270  0.73900  0.99700  1.0000
  C   C21       1.0  0.93780  0.75140  0.13200  1.0000
  H   H14       1.0  0.90430  0.03920  0.11100  1.0000
  H   H15       1.0  0.65300  0.46180  0.06640  1.0000
  C   C22       1.0  0.86020  0.56130  0.12180  1.0000
  C   C23       1.0  0.09820  0.76000  0.17700  1.0000
  O   O8        1.0  0.91870  0.40150  0.14950  1.0000
  C   C24       1.0  0.23090  0.77710  0.21580  1.0000
  H   H16       1.0  0.33720  0.79040  0.24670  1.0000
data_image5
_chemical_formula_structural       NHC2NOCH2C2OCHNHC2NOCH2C2OCHNHC2NOCH2C2OCHNHC2NOCH2C2OCH
_chemical_formula_sum              "N8 H16 C24 O8"
_cell_length_a       9.0169
_cell_length_b       6.8086
_cell_length_c       9.3777
_cell_angle_alpha    90
_cell_angle_beta     101.209
_cell_angle_gamma    90

_space_group_name_H-M_alt    "P 1"
_space_group_IT_number       1

loop_
  _space_group_symop_operation_xyz
  'x, y, z'

loop_
  _atom_site_type_symbol
  _atom_site_label
  _atom_site_symmetry_multiplicity
  _atom_site_fract_x
  _atom_site_fract_y
  _atom_site_fract_z
  _atom_site_occupancy
  N   N1        1.0  0.70260  0.91820  0.55350  1.0000
  H   H1        1.0  0.65390  0.02970  0.53240  1.0000
  C   C1        1.0  0.62250  0.74770  0.53830  1.0000
  C   C2        1.0  0.85580  0.92290  0.60040  1.0000
  N   N2        1.0  0.70520  0.58080  0.57290  1.0000
  O   O1        1.0  0.48390  0.74440  0.49630  1.0000
  C   C3        1.0  0.93880  0.75880  0.63340  1.0000
  H   H2        1.0  0.90570  0.04650  0.61000  1.0000
  H   H3        1.0  0.65500  0.46930  0.56360  1.0000
  C   C4        1.0  0.86160  0.56850  0.62150  1.0000
  C   C5        1.0  0.09880  0.76750  0.68260  1.0000
  O   O2        1.0  0.92066  0.40877  0.64942  1.0000
  C   C6        1.0  0.23170  0.78180  0.72290  1.0000
  H   H4        1.0  0.33790  0.79330  0.75520  1.0000
  N   N3        1.0  0.29800  0.09000  0.94880  1.0000
  H   H5        1.0  0.34630  0.97910  0.97300  1.0000
  C   C7        1.0  0.37870  0.26000  0.96140  1.0000
  C   C8        1.0  0.14510  0.08460  0.90030  1.0000
  N   N4        1.0  0.29650  0.42700  0.92580  1.0000
  O   O3        1.0  0.51730  0.26100  0.00300  1.0000
  C   C9        1.0  0.06220  0.24860  0.86800  1.0000
  H   H6        1.0  0.09570  0.96080  0.88900  1.0000
  H   H7        1.0  0.34700  0.53820  0.93360  1.0000
  C   C10       1.0  0.13980  0.43870  0.87820  1.0000
  C   C11       1.0  0.90180  0.24000  0.82300  1.0000
  O   O4        1.0  0.08130  0.59850  0.85050  1.0000
  C   C12       1.0  0.76910  0.22290  0.78420  1.0000
  H   H8        1.0  0.66280  0.20960  0.75330  1.0000
  N   N5        1.0  0.29740  0.08180  0.44650  1.0000
  H   H9        1.0  0.34610  0.97030  0.46760  1.0000
  C   C13       1.0  0.37750  0.25230  0.46170  1.0000
  C   C14       1.0  0.14420  0.07710  0.39960  1.0000
  N   N6        1.0  0.29480  0.41920  0.42710  1.0000
  O   O5        1.0  0.51610  0.25560  0.50370  1.0000
  C   C15       1.0  0.06120  0.24120  0.36660  1.0000
  H   H10       1.0  0.09430  0.95350  0.39000  1.0000
  H   H11       1.0  0.34500  0.53070  0.43640  1.0000
  C   C16       1.0  0.13840  0.43150  0.37850  1.0000
  C   C17       1.0  0.90120  0.23250  0.31740  1.0000
  O   O6        1.0  0.07934  0.59123  0.35058  1.0000
  C   C18       1.0  0.76830  0.21820  0.27710  1.0000
  H   H12       1.0  0.66210  0.20670  0.24480  1.0000
  N   N7        1.0  0.70200  0.91000  0.05120  1.0000
  H   H13       1.0  0.65370  0.02090  0.02700  1.0000
  C   C19       1.0  0.62130  0.74000  0.03860  1.0000
  C   C20       1.0  0.85490  0.91540  0.09970  1.0000
  N   N8        1.0  0.70350  0.57300  0.07420  1.0000
  O   O7        1.0  0.48270  0.73900  0.99700  1.0000
  C   C21       1.0  0.93780  0.75140  0.13200  1.0000
  H   H14       1.0  0.90430  0.03920  0.11100  1.0000
  H   H15       1.0  0.65300  0.46180  0.06640  1.0000
  C   C22       1.0  0.86020  0.56130  0.12180  1.0000
  C   C23       1.0  0.09820  0.76000  0.17700  1.0000
  O   O8        1.0  0.91870  0.40150  0.14950  1.0000
  C   C24       1.0  0.23090  0.77710  0.21580  1.0000
  H   H16       1.0  0.33720  0.79040  0.24670  1.0000
data_image6
_chemical_formula_structural       NHC2NOCH2C2OCHNHC2NOCH2C2OCHNHC2NOCH2C2OCHNHC2NOCH2C2OCH
_chemical_formula_sum              "N8 H16 C24 O8"
_cell_length_a       9.0169
_cell_length_b       6.8086
_cell_length_c       9.3777
_cell_angle_alpha    90
_cell_angle_beta     101.209
_cell_angle_gamma    90

_space_group_name_H-M_alt    "P 1"
_space_group_IT_number       1

loop_
  _space_group_symop_operation_xyz
  'x, y, z'

loop_
  _atom_site_type_symbol
  _atom_site_label
  _atom_site_symmetry_multiplicity
  _atom_site_fract_x
  _atom_site_fract_y
  _atom_site_fract_z
  _atom_site_occupancy
  N   N1        1.0  0.70200  0.59000  0.55120  1.0000
  H   H1        1.0  0.65370  0.47910  0.52700  1.0000
  C   C1        1.0  0.62130  0.76000  0.53860  1.0000
  C   C2        1.0  0.85490  0.58460  0.59970  1.0000
  N   N2        1.0  0.70350  0.92700  0.57420  1.0000
  O   O1        1.0  0.48270  0.76100  0.49700  1.0000
  C   C3        1.0  0.93780  0.74860  0.63200  1.0000
  H   H2        1.0  0.90430  0.46080  0.61100  1.0000
  H   H3        1.0  0.65300  0.03820  0.56640  1.0000
  C   C4        1.0  0.86020  0.93870  0.62180  1.0000
  C   C5        1.0  0.09820  0.74000  0.67700  1.0000
  O   O2        1.0  0.91870  0.09850  0.64950  1.0000
  C   C6        1.0  0.23090  0.72290  0.71580  1.0000
  H   H4        1.0  0.33720  0.70960  0.74670  1.0000
  N   N3        1.0  0.29800  0.09000  0.94880  1.0000
  H   H5        1.0  0.34630  0.97910  0.97300  1.0000
  C   C7        1.0  0.37870  0.26000  0.96140  1.0000
  C   C8        1.0  0.14510  0.08460  0.90030  1.0000
  N   N4        1.0  0.29650  0.42700  0.92580  1.0000
  O   O3        1.0  0.51730  0.26100  0.00300  1.0000
  C   C9        1.0  0.06220  0.24860  0.86800  1.0000
  H   H6        1.0  0.09570  0.96080  0.88900  1.0000
  H   H7        1.0  0.34700  0.53820  0.93360  1.0000
  C   C10       1.0  0.13980  0.43870  0.87820  1.0000
  C   C11       1.0  0.90180  0.24000  0.82300  1.0000
  O   O4        1.0  0.08130  0.59850  0.85050  1.0000
  C   C12       1.0  0.76910  0.22290  0.78420  1.0000
  H   H8        1.0  0.66280  0.20960  0.75330  1.0000
  N   N5        1.0  0.29800  0.41000  0.44880  1.0000
  H   H9        1.0  0.34630  0.52090  0.47300  1.0000
  C   C13       1.0  0.37870  0.24000  0.46140  1.0000
  C   C14       1.0  0.14510  0.41540  0.40030  1.0000
  N   N6        1.0  0.29650  0.07300  0.42580  1.0000
  O   O5        1.0  0.51730  0.23900  0.50300  1.0000
  C   C15       1.0  0.06220  0.25140  0.36800  1.0000
  H   H10       1.0  0.09570  0.53920  0.38900  1.0000
  H   H11       1.0  0.34700  0.96180  0.43360  1.0000
  C   C16       1.0  0.13980  0.06130  0.37820  1.0000
  C   C17       1.0  0.90180  0.26000  0.32300  1.0000
  O   O6        1.0  0.08130  0.90150  0.35050  1.0000
  C   C18       1.0  0.76910  0.27710  0.28420  1.0000
  H   H12       1.0  0.66280  0.29040  0.25330  1.0000
  N   N7        1.0  0.70200  0.91000  0.05120  1.0000
  H   H13       1.0  0.65370  0.02090  0.02700  1.0000
  C   C19       1.0  0.62130  0.74000  0.03860  1.0000
  C   C20       1.0  0.85490  0.91540  0.09970  1.0000
  N   N8        1.0  0.70350  0.57300  0.07420  1.0000
  O   O7        1.0  0.48270  0.73900  0.99700  1.0000
  C   C21       1.0  0.93780  0.75140  0.13200  1.0000
  H   H14       1.0  0.90430  0.03920  0.11100  1.0000
  H   H15       1.0  0.65300  0.46180  0.06640  1.0000
  C   C22       1.0  0.86020  0.56130  0.12180  1.0000
  C   C23       1.0  0.09820  0.76000  0.17700  1.0000
  O   O8        1.0  0.91870  0.40150  0.14950  1.0000
  C   C24       1.0  0.23090  0.77710  0.21580  1.0000
  H   H16       1.0  0.33720  0.79040  0.24670  1.0000
